tests/data/short_circuit/multiple-infinite-faults/input.json
{
  "version": "1.0",
  "type": "input",
  "is_batch": false,
  "attributes": {},
  "data": {
    "node": [
      {
        "id": 1,
        "u_rated": 10e3
      },
      {
        "id": 2,
        "u_rated": 10e3
      }
    ],
    "line": [
      {
        "id": 4,
        "from_node": 1,
        "to_node": 2,
        "from_status": 1,
        "to_status": 1,
        "r1": 0.2,
        "x1": 0.1,
        "c1": 0.0001,
        "tan1": 0.002,
        "r0": 0.1,
        "x0": 0.3,
        "c0": 0.001,
        "tan0": 0.005
      }
    ],
    "source": [
      {
        "id": 10,
        "node": 1,
        "status": 1,
        "u_ref": 1.05,
        "sk": 1e12
      }
    ],
    "fault": [
      {
        "id": 13,
        "status": 1,
        "fault_type": 1,
        "fault_phase": 1,
        "fault_object": 2
      },
      {
        "id": 14,
        "status": 1,
        "fault_type": 1,
        "fault_phase": 1,
        "fault_object": 2
      }
    ]
  }
}