tests/data/short_circuit/multiple-infinite-faults/sc_output.json
{
  "version": "1.0",
  "type": "sc_output",
  "is_batch": false,
  "attributes": {},
  "data": {
    "node": [
      {"id": 1, "energized": 1, "u_pu": [1.0996045675254589, 1.1000103566293118, 1.1000049115140904], "u": [6348.5699306296574, 6350.9127551130941, 6350.8813177257052], "u_angle": [-0.00029032819163950262, -2.0944000919789239, 2.0944022370749789]},
      {"id": 2, "energized": 1, "u_pu": [0, 1.4519702790039881, 0.92767113697969161], "u": [0, 8382.9543143828851, 5355.9118065467119], "u_angle": [0, -2.0640809423071014, 2.3959700839108029]}
    ],
    "line": [
      {"id": 4, "energized": 1, "i_from": [26676.391070789676, 615.19817602169724, 485.93638411285576], "i_from_angle": [-0.79198784576720793, -0.91125777281235654, -1.5067117041261004], "i_to": [26358.635229790583, 3.2818563180946161e-12, 8.5879703984971413e-12], "i_to_angle": [2.352175122486321, -1.5707963267948966, 2.2716507346793469]}
    ],
    "source": [
      {"id": 10, "energized": 1, "i": [26676.391070788126, 615.19817601695809, 485.93638410683513], "i_angle": [-0.79198784576720049, -0.91125777281557085, -1.5067117041175324]}
    ],
    "fault": [
      {"id": 13, "energized": 1, "i_f": [13179.317614895288, 0, 0], "i_f_angle": [-0.7894175311034719, 0, 0]},
      {"id": 14, "energized": 1, "i_f": [13179.317614895288, 0, 0], "i_f_angle": [-0.7894175311034719, 0, 0]}
    ]
  }
}
